
     RDKit          3D

 43 44  0  0  0  0  0  0  0  0999 V2000
    1.5951    1.8074   -3.9778 O   0  0  0  0  0  0  0  0  0  0  0  0
    1.9133    0.6445   -3.2854 C   0  0  0  0  0  0  0  0  0  0  0  0
    3.1672    0.3091   -3.2024 N   0  0  0  0  0  0  0  0  0  0  0  0
    3.6341   -0.7953   -2.4244 C   0  0  0  0  0  0  0  0  0  0  0  0
    4.8612   -1.0753   -2.4065 O   0  0  0  0  0  0  0  0  0  0  0  0
    2.7118   -1.5666   -1.6577 N   0  0  0  0  0  0  0  0  0  0  0  0
    1.3139   -1.2952   -1.7588 C   0  0  0  0  0  0  0  0  0  0  0  0
    0.4964   -2.1075   -1.2480 O   0  0  0  0  0  0  0  0  0  0  0  0
    0.8503   -0.1376   -2.5762 C   0  0  0  0  0  0  0  0  0  0  0  0
   -0.4691    0.1844   -2.6822 C   0  0  0  0  0  0  0  0  0  0  0  0
   -1.3970    0.0948   -1.5174 C   0  0  0  0  0  0  0  0  0  0  0  0
   -0.9569   -0.1136   -0.3546 O   0  0  0  0  0  0  0  0  0  0  0  0
   -2.7930    0.3618   -1.6837 N   0  0  0  0  0  0  0  0  0  0  0  0
   -3.2980    0.8990   -2.9062 C   0  0  0  0  0  0  0  0  0  0  0  0
   -4.5140    1.2134   -3.0007 O   0  0  0  0  0  0  0  0  0  0  0  0
   -2.4261    1.0783   -4.0224 N   0  0  0  0  0  0  0  0  0  0  0  0
   -1.0662    0.6366   -3.9715 C   0  0  0  0  0  0  0  0  0  0  0  0
   -0.4232    0.5359   -5.0512 O   0  0  0  0  0  0  0  0  0  0  0  0
    3.0510   -2.3712   -1.0837 H   0  0  0  0  0  0  0  0  0  0  0  0
   -3.4384    0.2468   -0.8698 H   0  0  0  0  0  0  0  0  0  0  0  0
   -2.8123    1.4504   -4.9193 H   0  0  0  0  0  0  0  0  0  0  0  0
   -1.5951   -1.8074    3.9778 O   0  0  0  0  0  0  0  0  0  0  0  0
   -1.9133   -0.6445    3.2854 C   0  0  0  0  0  0  0  0  0  0  0  0
   -3.1672   -0.3091    3.2024 N   0  0  0  0  0  0  0  0  0  0  0  0
   -3.6341    0.7953    2.4244 C   0  0  0  0  0  0  0  0  0  0  0  0
   -4.8612    1.0753    2.4065 O   0  0  0  0  0  0  0  0  0  0  0  0
   -2.7118    1.5666    1.6577 N   0  0  0  0  0  0  0  0  0  0  0  0
   -1.3139    1.2952    1.7588 C   0  0  0  0  0  0  0  0  0  0  0  0
   -0.4964    2.1075    1.2480 O   0  0  0  0  0  0  0  0  0  0  0  0
   -0.8503    0.1376    2.5762 C   0  0  0  0  0  0  0  0  0  0  0  0
    0.4691   -0.1844    2.6822 C   0  0  0  0  0  0  0  0  0  0  0  0
    1.3970   -0.0948    1.5174 C   0  0  0  0  0  0  0  0  0  0  0  0
    0.9569    0.1136    0.3546 O   0  0  0  0  0  0  0  0  0  0  0  0
    2.7930   -0.3618    1.6837 N   0  0  0  0  0  0  0  0  0  0  0  0
    3.2980   -0.8990    2.9062 C   0  0  0  0  0  0  0  0  0  0  0  0
    4.5140   -1.2134    3.0007 O   0  0  0  0  0  0  0  0  0  0  0  0
    2.4261   -1.0783    4.0224 N   0  0  0  0  0  0  0  0  0  0  0  0
    1.0662   -0.6366    3.9715 C   0  0  0  0  0  0  0  0  0  0  0  0
    0.4232   -0.5359    5.0512 O   0  0  0  0  0  0  0  0  0  0  0  0
   -3.0510    2.3712    1.0837 H   0  0  0  0  0  0  0  0  0  0  0  0
    3.4384   -0.2468    0.8698 H   0  0  0  0  0  0  0  0  0  0  0  0
    2.8123   -1.4504    4.9193 H   0  0  0  0  0  0  0  0  0  0  0  0
    0.0000    0.0000    0.0000 Ca  0  0  0  0  0 15  0  0  0  0  0  0
  1  2  1  0
  2  3  2  0
  3  4  1  0
  4  5  2  0
  4  6  1  0
  6  7  1  0
  7  8  2  0
  7  9  1  0
  9 10  2  3
 10 11  1  0
 11 12  2  0
 11 13  1  0
 13 14  1  0
 14 15  2  0
 14 16  1  0
 16 17  1  0
 17 18  2  0
  9  2  1  0
 17 10  1  0
  6 19  1  0
 13 20  1  0
 16 21  1  0
 22 23  1  0
 23 24  2  0
 24 25  1  0
 25 26  2  0
 25 27  1  0
 27 28  1  0
 28 29  2  0
 28 30  1  0
 30 31  2  3
 31 32  1  0
 32 33  2  0
 32 34  1  0
 34 35  1  0
 35 36  2  0
 35 37  1  0
 37 38  1  0
 38 39  2  0
 30 23  1  0
 38 31  1  0
 27 40  1  0
 34 41  1  0
 37 42  1  0
M  CHG  3   1  -1  22  -1  43   2
M  END
