
     RDKit          3D

 36 35  0  0  0  0  0  0  0  0999 V2000
   -3.5826    2.9979    1.7148 O   0  0  0  0  0  0  0  0  0  0  0  0
   -3.7420    1.6599    1.6489 C   0  0  0  0  0  0  0  0  0  0  0  0
   -4.8440    1.1809    1.4257 O   0  0  0  0  0  0  0  0  0  0  0  0
   -2.4452    0.8880    1.8337 C   0  0  0  0  0  0  0  0  0  0  0  0
   -1.7917    0.5746    0.5401 N   0  0  0  0  0  0  0  0  0  0  0  0
   -0.4207    0.0737    0.7805 C   0  0  0  0  0  0  0  0  0  0  0  0
    0.4290   -0.1314   -0.5019 C   0  0  0  0  0  0  0  0  0  0  0  0
    1.8314   -0.4795   -0.1955 N   0  0  0  0  0  0  0  0  0  0  0  0
    2.6412    0.7261    0.1089 C   0  0  0  0  0  0  0  0  0  0  0  0
    3.9617    0.3933    0.8001 C   0  0  0  0  0  0  0  0  0  0  0  0
    4.6850    1.5071    1.0557 O   0  0  0  0  0  0  0  0  0  0  0  0
    4.4025   -0.6971    1.1242 O   0  0  0  0  0  0  0  0  0  0  0  0
    2.4353   -1.3264   -1.2586 C   0  0  0  0  0  0  0  0  0  0  0  0
    2.4725   -0.7086   -2.6538 C   0  0  0  0  0  0  0  0  0  0  0  0
    2.9510   -1.5764   -3.5726 O   0  0  0  0  0  0  0  0  0  0  0  0
    2.1420    0.4138   -2.9990 O   0  0  0  0  0  0  0  0  0  0  0  0
   -2.6134   -0.3067   -0.3292 C   0  0  0  0  0  0  0  0  0  0  0  0
   -2.8717   -1.7130    0.2032 C   0  0  0  0  0  0  0  0  0  0  0  0
   -3.4833   -2.4901   -0.7186 O   0  0  0  0  0  0  0  0  0  0  0  0
   -2.6064   -2.1747    1.3005 O   0  0  0  0  0  0  0  0  0  0  0  0
   -4.4759    3.3526    1.5275 H   0  0  0  0  0  0  0  0  0  0  0  0
   -2.6531    0.0022    2.4422 H   0  0  0  0  0  0  0  0  0  0  0  0
   -1.7883    1.5221    2.4439 H   0  0  0  0  0  0  0  0  0  0  0  0
    0.0910    0.8116    1.4095 H   0  0  0  0  0  0  0  0  0  0  0  0
   -0.4348   -0.8597    1.3562 H   0  0  0  0  0  0  0  0  0  0  0  0
    0.3723    0.7621   -1.1358 H   0  0  0  0  0  0  0  0  0  0  0  0
   -0.0243   -0.9556   -1.0654 H   0  0  0  0  0  0  0  0  0  0  0  0
    2.8551    1.3125   -0.7896 H   0  0  0  0  0  0  0  0  0  0  0  0
    2.1017    1.3690    0.8128 H   0  0  0  0  0  0  0  0  0  0  0  0
    5.4861    1.1625    1.5039 H   0  0  0  0  0  0  0  0  0  0  0  0
    3.4582   -1.6078   -0.9910 H   0  0  0  0  0  0  0  0  0  0  0  0
    1.8593   -2.2578   -1.3225 H   0  0  0  0  0  0  0  0  0  0  0  0
    2.9300   -1.0693   -4.4114 H   0  0  0  0  0  0  0  0  0  0  0  0
   -3.5833    0.1608   -0.5274 H   0  0  0  0  0  0  0  0  0  0  0  0
   -2.1286   -0.3980   -1.3071 H   0  0  0  0  0  0  0  0  0  0  0  0
   -3.6160   -3.3427   -0.2528 H   0  0  0  0  0  0  0  0  0  0  0  0
  1  2  1  0
  2  3  2  0
  2  4  1  0
  4  5  1  0
  5  6  1  0
  6  7  1  0
  7  8  1  0
  8  9  1  0
  9 10  1  0
 10 11  1  0
 10 12  2  0
  8 13  1  0
 13 14  1  0
 14 15  1  0
 14 16  2  0
  5 17  1  0
 17 18  1  0
 18 19  1  0
 18 20  2  0
  1 21  1  0
  4 22  1  0
  4 23  1  0
  6 24  1  0
  6 25  1  0
  7 26  1  0
  7 27  1  0
  9 28  1  0
  9 29  1  0
 11 30  1  0
 13 31  1  0
 13 32  1  0
 15 33  1  0
 17 34  1  0
 17 35  1  0
 19 36  1  0
M  END
