
     RDKit          3D

 44 46  0  0  0  0  0  0  0  0999 V2000
   -7.2063    0.0545    1.0067 C   0  0  0  0  0  0  0  0  0  0  0  0
   -7.0235   -0.8347   -0.0506 C   0  0  0  0  0  0  0  0  0  0  0  0
   -5.7462   -1.0644   -0.5689 C   0  0  0  0  0  0  0  0  0  0  0  0
   -4.6211   -0.4005   -0.0312 C   0  0  0  0  0  0  0  0  0  0  0  0
   -4.8218    0.5041    1.0476 C   0  0  0  0  0  0  0  0  0  0  0  0
   -6.1124    0.7223    1.5553 C   0  0  0  0  0  0  0  0  0  0  0  0
   -3.7322    1.1811    1.6079 C   0  0  0  0  0  0  0  0  0  0  0  0
   -2.4467    0.9755    1.1156 C   0  0  0  0  0  0  0  0  0  0  0  0
   -2.2249    0.0876    0.0517 C   0  0  0  0  0  0  0  0  0  0  0  0
   -3.3035   -0.6030   -0.5264 C   0  0  0  0  0  0  0  0  0  0  0  0
   -3.0162   -1.4733   -1.5845 O   0  0  0  0  0  0  0  0  0  0  0  0
   -0.9048   -0.1330   -0.4636 N   0  0  0  0  0  0  0  0  0  0  0  0
    0.1143    0.4736   -0.0035 N   0  0  0  0  0  0  0  0  0  0  0  0
    1.4396    0.2558   -0.5142 C   0  0  0  0  0  0  0  0  0  0  0  0
    2.5335    0.2895    0.3816 C   0  0  0  0  0  0  0  0  0  0  0  0
    2.3352    0.6028    1.7407 C   0  0  0  0  0  0  0  0  0  0  0  0
    3.4055    0.6292    2.6319 C   0  0  0  0  0  0  0  0  0  0  0  0
    4.7043    0.3415    2.1965 C   0  0  0  0  0  0  0  0  0  0  0  0
    4.9158    0.0219    0.8445 C   0  0  0  0  0  0  0  0  0  0  0  0
    3.8458   -0.0126   -0.0774 C   0  0  0  0  0  0  0  0  0  0  0  0
    4.0467   -0.3454   -1.4413 C   0  0  0  0  0  0  0  0  0  0  0  0
    2.9570   -0.3304   -2.3194 C   0  0  0  0  0  0  0  0  0  0  0  0
    1.6738   -0.0054   -1.8834 C   0  0  0  0  0  0  0  0  0  0  0  0
    0.6689    0.0858   -2.8492 O   0  0  0  0  0  0  0  0  0  0  0  0
    5.6422   -0.7666   -2.0944 S   0  0  0  0  0  0  0  0  0  0  0  0
    6.5697    0.4078   -1.9571 O   0  0  0  0  0  0  0  0  0  0  0  0
    5.5386   -1.1329   -3.5486 O   0  0  0  0  0  0  0  0  0  0  0  0
    6.2637   -2.0843   -1.2573 O   0  0  0  0  0  0  0  0  0  0  0  0
    5.8040    0.3734    3.1263 N   0  0  0  0  0  0  0  0  0  0  0  0
    6.9666    0.1171    2.7495 O   0  0  0  0  0  0  0  0  0  0  0  0
    5.5922    0.6876    4.4494 O   0  0  0  0  0  0  0  0  0  0  0  0
    0.0000    0.0000    0.0000 Na  0  0  0  0  0 15  0  0  0  0  0  0
   -8.1989    0.2268    1.4024 H   0  0  0  0  0  0  0  0  0  0  0  0
   -7.8770   -1.3502   -0.4722 H   0  0  0  0  0  0  0  0  0  0  0  0
   -5.6701   -1.7632   -1.3859 H   0  0  0  0  0  0  0  0  0  0  0  0
   -6.2748    1.4098    2.3771 H   0  0  0  0  0  0  0  0  0  0  0  0
   -3.8750    1.8723    2.4304 H   0  0  0  0  0  0  0  0  0  0  0  0
   -1.6230    1.5118    1.5692 H   0  0  0  0  0  0  0  0  0  0  0  0
   -3.7011   -2.0230   -2.0814 H   0  0  0  0  0  0  0  0  0  0  0  0
    1.3503    0.8345    2.1262 H   0  0  0  0  0  0  0  0  0  0  0  0
    3.2135    0.8771    3.6679 H   0  0  0  0  0  0  0  0  0  0  0  0
    5.9235   -0.1956    0.5263 H   0  0  0  0  0  0  0  0  0  0  0  0
    3.1025   -0.5461   -3.3700 H   0  0  0  0  0  0  0  0  0  0  0  0
   -0.2278    0.5214   -2.6826 H   0  0  0  0  0  0  0  0  0  0  0  0
  1  2  2  0
  2  3  1  0
  3  4  2  0
  4  5  1  0
  5  6  2  0
  5  7  1  0
  7  8  2  0
  8  9  1  0
  9 10  2  0
 10 11  1  0
  9 12  1  0
 12 13  2  0
 13 14  1  0
 14 15  1  0
 15 16  2  0
 16 17  1  0
 17 18  2  0
 18 19  1  0
 19 20  2  0
 20 21  1  0
 21 22  2  0
 22 23  1  0
 23 24  1  0
 21 25  1  0
 25 26  2  0
 25 27  2  0
 25 28  1  0
 18 29  1  0
 29 30  2  0
 29 31  1  0
  6  1  1  0
 10  4  1  0
 23 14  2  0
 20 15  1  0
  1 33  1  0
  2 34  1  0
  3 35  1  0
  6 36  1  0
  7 37  1  0
  8 38  1  0
 11 39  1  0
 16 40  1  0
 17 41  1  0
 19 42  1  0
 22 43  1  0
 24 44  1  0
M  CHG  4  28  -1  29   1  31  -1  32   1
M  END
