Complexo [Mg-EBT(H2O)3]-
  Avogadro09062614163D

 51 56  0  0  0  0  0  0  0  0999 V2000
   -1.0874   -0.8767   -2.3055 Mg  0  2  0  0  0  0  0  0  0  0  0  0
   -7.0336    0.2121    1.0881 C   0  0  0  0  0  0  0  0  0  0  0  0
   -6.8981   -0.3107   -0.1907 C   0  0  0  0  0  0  0  0  0  0  0  0
   -5.6372   -0.4535   -0.7555 C   0  0  0  0  0  0  0  0  0  0  0  0
   -4.4978   -0.0846   -0.0400 C   0  0  0  0  0  0  0  0  0  0  0  0
   -4.6378    0.4383    1.2539 C   0  0  0  0  0  0  0  0  0  0  0  0
   -5.9073    0.5899    1.8078 C   0  0  0  0  0  0  0  0  0  0  0  0
   -3.5072    0.7985    1.9838 C   0  0  0  0  0  0  0  0  0  0  0  0
   -2.2400    0.6291    1.4417 C   0  0  0  0  0  0  0  0  0  0  0  0
   -2.0997    0.1108    0.1569 C   0  0  0  0  0  0  0  0  0  0  0  0
   -3.2211   -0.2365   -0.5840 C   0  0  0  0  0  0  0  0  0  0  0  0
   -3.0509   -0.7308   -1.7920 O   0  0  0  0  0  0  0  0  0  0  0  0
   -0.8908   -0.0997   -0.4242 N   0  0  0  0  0  0  0  0  0  0  0  0
    0.2542    0.1125    0.2034 N   0  0  0  0  0  0  0  0  0  0  0  0
    1.5188   -0.0924   -0.2687 C   0  0  0  0  0  0  0  0  0  0  0  0
    2.5784    0.1554    0.6192 C   0  0  0  0  0  0  0  0  0  0  0  0
    2.3470    0.5797    1.9307 C   0  0  0  0  0  0  0  0  0  0  0  0
    3.3998    0.7843    2.8128 C   0  0  0  0  0  0  0  0  0  0  0  0
    4.7181    0.5754    2.4122 C   0  0  0  0  0  0  0  0  0  0  0  0
    4.9569    0.1769    1.0965 C   0  0  0  0  0  0  0  0  0  0  0  0
    3.9043   -0.0304    0.2090 C   0  0  0  0  0  0  0  0  0  0  0  0
    4.1822   -0.4414   -1.0860 C   0  0  0  0  0  0  0  0  0  0  0  0
    3.1370   -0.6909   -1.9619 C   0  0  0  0  0  0  0  0  0  0  0  0
    1.8117   -0.5376   -1.5703 C   0  0  0  0  0  0  0  0  0  0  0  0
    0.9202   -0.8618   -2.4834 O   0  0  0  0  0  0  0  0  0  0  0  0
    6.1569   -0.7354   -1.6355 S   0  0  0  0  0  0  0  0  0  0  0  0
    6.3918    0.9777   -1.7438 O   0  0  0  0  0  0  0  0  0  0  0  0
    5.7533   -0.7761   -3.3196 O   0  0  0  0  0  0  0  0  0  0  0  0
    8.0154   -1.0178   -2.1028 O   0  0  0  0  0  0  0  0  0  0  0  0
    5.7487    0.7542    3.2939 N   0  0  0  0  0  0  0  0  0  0  0  0
    6.8928    0.5711    2.9561 O   0  0  0  0  0  0  0  0  0  0  0  0
    5.5091    1.1350    4.5705 O   0  0  0  0  0  0  0  0  0  0  0  0
   -8.0175    0.3277    1.5236 H   0  0  0  0  0  0  0  0  0  0  0  0
   -7.7768   -0.6064   -0.7482 H   0  0  0  0  0  0  0  0  0  0  0  0
   -5.5607   -0.8645   -1.7535 H   0  0  0  0  0  0  0  0  0  0  0  0
   -6.0319    0.9980    2.8033 H   0  0  0  0  0  0  0  0  0  0  0  0
   -3.6012    1.2038    2.9837 H   0  0  0  0  0  0  0  0  0  0  0  0
   -1.3745    0.8997    2.0319 H   0  0  0  0  0  0  0  0  0  0  0  0
    1.3454    0.7628    2.2970 H   0  0  0  0  0  0  0  0  0  0  0  0
    3.1703    1.1142    3.8175 H   0  0  0  0  0  0  0  0  0  0  0  0
    5.9719    0.0031    0.7621 H   0  0  0  0  0  0  0  0  0  0  0  0
    3.3512   -1.0471   -2.9601 H   0  0  0  0  0  0  0  0  0  0  0  0
   -0.9296   -2.7864   -1.7070 O   0  0  0  0  0  0  0  0  0  0  0  0
   -1.6494   -2.9083   -1.0381 H   0  0  0  0  0  0  0  0  0  0  0  0
   -0.0949   -2.8394   -1.1770 H   0  0  0  0  0  0  0  0  0  0  0  0
   -1.5722   -1.6436   -4.0939 O   0  0  0  0  0  0  0  0  0  0  0  0
   -2.2630   -2.3309   -3.9179 H   0  0  0  0  0  0  0  0  0  0  0  0
   -0.7745   -2.1557   -4.3805 H   0  0  0  0  0  0  0  0  0  0  0  0
   -1.1052    0.8903   -3.2553 O   0  0  0  0  0  0  0  0  0  0  0  0
   -0.7725    1.5505   -2.5966 H   0  0  0  0  0  0  0  0  0  0  0  0
   -0.3947    0.8434   -3.9434 H   0  0  0  0  0  0  0  0  0  0  0  0
  1 12  1  0  0  0  0
  1 13  1  0  0  0  0
  1 25  1  0  0  0  0
  1 43  1  0  0  0  0
  1 46  1  0  0  0  0
  1 49  1  0  0  0  0
  2  3  2  0  0  0  0
  3  4  1  0  0  0  0
  4  5  2  0  0  0  0
  5  6  1  0  0  0  0
  6  7  2  0  0  0  0
  6  8  1  0  0  0  0
  8  9  2  0  0  0  0
  9 10  1  0  0  0  0
 10 11  2  0  0  0  0
 11 12  1  0  0  0  0
 10 13  1  0  0  0  0
 13 14  2  0  0  0  0
 14 15  1  0  0  0  0
 15 16  1  0  0  0  0
 16 17  2  0  0  0  0
 17 18  1  0  0  0  0
 18 19  2  0  0  0  0
 19 20  1  0  0  0  0
 20 21  2  0  0  0  0
 21 22  1  0  0  0  0
 22 23  2  0  0  0  0
 23 24  1  0  0  0  0
 24 25  1  0  0  0  0
 22 26  1  0  0  0  0
 26 27  2  0  0  0  0
 26 28  2  0  0  0  0
 26 29  1  0  0  0  0
 19 30  1  0  0  0  0
 30 31  2  0  0  0  0
 30 32  1  0  0  0  0
  2  7  1  0  0  0  0
  5 11  1  0  0  0  0
 15 24  2  0  0  0  0
 16 21  1  0  0  0  0
  2 33  1  0  0  0  0
  3 34  1  0  0  0  0
  4 35  1  0  0  0  0
  7 36  1  0  0  0  0
  8 37  1  0  0  0  0
  9 38  1  0  0  0  0
 17 39  1  0  0  0  0
 18 40  1  0  0  0  0
 20 41  1  0  0  0  0
 23 42  1  0  0  0  0
 43 44  1  0  0  0  0
 43 45  1  0  0  0  0
 46 47  1  0  0  0  0
 46 48  1  0  0  0  0
 49 50  1  0  0  0  0
 49 51  1  0  0  0  0
M  CHG  1   1   2
M  END
