90479084
  -OEChem-09242614402D

 68 52  0     0  0  0  0  0  0999 V2000
    0.8660    1.3291    0.0000 Mo  0  0  0  0  0  0  0  0  0  0  0  0
    0.8660    8.3291    0.0000 Mo  0  0  0  0  0  0  0  0  0  0  0  0
    4.5981    1.3291    0.0000 Mo  0  0  0  0  0  0  0  0  0  0  0  0
    8.3301    1.0000    0.0000 Mo  0  0  0  0  0  0  0  0  0  0  0  0
   12.0622    1.3291    0.0000 Mo  0  0  0  0  0  0  0  0  0  0  0  0
    0.8660    4.8291    0.0000 Mo  0  0  0  0  0  0  0  0  0  0  0  0
    4.5981    4.8291    0.0000 Mo  0  0  0  0  0  0  0  0  0  0  0  0
   12.0622    4.8291    0.0000 Mo  0  0  0  0  0  0  0  0  0  0  0  0
    4.5981    8.3291    0.0000 Mo  0  0  0  0  0  0  0  0  0  0  0  0
    8.3301    8.0000    0.0000 Mo  0  0  0  0  0  0  0  0  0  0  0  0
   12.0622    8.3291    0.0000 Mo  0  0  0  0  0  0  0  0  0  0  0  0
    8.3301    4.5000    0.0000 Mo  0  0  0  0  0  0  0  0  0  0  0  0
    8.3301   11.3660    0.0000 P   0  0  0  0  0  0  0  0  0  0  0  0
    7.4641   10.8660    0.0000 O   0  5  0  0  0  0  0  0  0  0  0  0
    7.8301   12.2320    0.0000 O   0  5  0  0  0  0  0  0  0  0  0  0
    8.8301   10.5000    0.0000 O   0  5  0  0  0  0  0  0  0  0  0  0
    9.1962   11.8660    0.0000 O   0  0  0  0  0  0  0  0  0  0  0  0
    1.7321    1.8291    0.0000 O   0  0  0  0  0  0  0  0  0  0  0  0
    0.0000    1.8291    0.0000 O   0  0  0  0  0  0  0  0  0  0  0  0
    0.8660    0.3291    0.0000 O   0  0  0  0  0  0  0  0  0  0  0  0
    1.7321    8.8291    0.0000 O   0  0  0  0  0  0  0  0  0  0  0  0
    0.0000    8.8291    0.0000 O   0  0  0  0  0  0  0  0  0  0  0  0
    0.8660    7.3291    0.0000 O   0  0  0  0  0  0  0  0  0  0  0  0
    5.4641    1.8291    0.0000 O   0  0  0  0  0  0  0  0  0  0  0  0
    3.7321    1.8291    0.0000 O   0  0  0  0  0  0  0  0  0  0  0  0
    4.5981    0.3291    0.0000 O   0  0  0  0  0  0  0  0  0  0  0  0
    9.1962    1.5000    0.0000 O   0  0  0  0  0  0  0  0  0  0  0  0
    7.4641    1.5000    0.0000 O   0  0  0  0  0  0  0  0  0  0  0  0
    8.3301    0.0000    0.0000 O   0  0  0  0  0  0  0  0  0  0  0  0
   12.9282    1.8291    0.0000 O   0  0  0  0  0  0  0  0  0  0  0  0
   11.1962    1.8291    0.0000 O   0  0  0  0  0  0  0  0  0  0  0  0
   12.0622    0.3291    0.0000 O   0  0  0  0  0  0  0  0  0  0  0  0
    1.7321    5.3291    0.0000 O   0  0  0  0  0  0  0  0  0  0  0  0
    0.0000    5.3291    0.0000 O   0  0  0  0  0  0  0  0  0  0  0  0
    0.8660    3.8291    0.0000 O   0  0  0  0  0  0  0  0  0  0  0  0
    5.4641    5.3291    0.0000 O   0  0  0  0  0  0  0  0  0  0  0  0
    3.7321    5.3291    0.0000 O   0  0  0  0  0  0  0  0  0  0  0  0
    4.5981    3.8291    0.0000 O   0  0  0  0  0  0  0  0  0  0  0  0
   12.9282    5.3291    0.0000 O   0  0  0  0  0  0  0  0  0  0  0  0
   11.1962    5.3291    0.0000 O   0  0  0  0  0  0  0  0  0  0  0  0
   12.0622    3.8291    0.0000 O   0  0  0  0  0  0  0  0  0  0  0  0
    5.4641    8.8291    0.0000 O   0  0  0  0  0  0  0  0  0  0  0  0
    3.7321    8.8291    0.0000 O   0  0  0  0  0  0  0  0  0  0  0  0
    4.5981    7.3291    0.0000 O   0  0  0  0  0  0  0  0  0  0  0  0
    9.1962    8.5000    0.0000 O   0  0  0  0  0  0  0  0  0  0  0  0
    7.4641    8.5000    0.0000 O   0  0  0  0  0  0  0  0  0  0  0  0
    8.3301    7.0000    0.0000 O   0  0  0  0  0  0  0  0  0  0  0  0
   12.9282    8.8291    0.0000 O   0  0  0  0  0  0  0  0  0  0  0  0
   11.1962    8.8291    0.0000 O   0  0  0  0  0  0  0  0  0  0  0  0
   12.0622    7.3291    0.0000 O   0  0  0  0  0  0  0  0  0  0  0  0
    9.1962    5.0000    0.0000 O   0  0  0  0  0  0  0  0  0  0  0  0
    7.4641    5.0000    0.0000 O   0  0  0  0  0  0  0  0  0  0  0  0
    8.3301    3.5000    0.0000 O   0  0  0  0  0  0  0  0  0  0  0  0
   12.0622   11.3660    0.0000 N   0  3  0  0  0  0  0  0  0  0  0  0
    0.8660   11.3660    0.0000 N   0  3  0  0  0  0  0  0  0  0  0  0
    4.5981   11.3660    0.0000 N   0  3  0  0  0  0  0  0  0  0  0  0
   12.5991   11.6760    0.0000 H   0  0  0  0  0  0  0  0  0  0  0  0
   11.5252   11.0560    0.0000 H   0  0  0  0  0  0  0  0  0  0  0  0
   11.7522   11.9030    0.0000 H   0  0  0  0  0  0  0  0  0  0  0  0
   12.3722   10.8291    0.0000 H   0  0  0  0  0  0  0  0  0  0  0  0
    1.4030   11.6760    0.0000 H   0  0  0  0  0  0  0  0  0  0  0  0
    0.3291   11.0560    0.0000 H   0  0  0  0  0  0  0  0  0  0  0  0
    0.5560   11.9030    0.0000 H   0  0  0  0  0  0  0  0  0  0  0  0
    1.1760   10.8291    0.0000 H   0  0  0  0  0  0  0  0  0  0  0  0
    5.1350   11.6760    0.0000 H   0  0  0  0  0  0  0  0  0  0  0  0
    4.0611   11.0560    0.0000 H   0  0  0  0  0  0  0  0  0  0  0  0
    4.2881   11.9030    0.0000 H   0  0  0  0  0  0  0  0  0  0  0  0
    4.9081   10.8291    0.0000 H   0  0  0  0  0  0  0  0  0  0  0  0
  1 18  2  0  0  0  0
  1 19  2  0  0  0  0
  1 20  2  0  0  0  0
  2 21  2  0  0  0  0
  2 22  2  0  0  0  0
  2 23  2  0  0  0  0
  3 24  2  0  0  0  0
  3 25  2  0  0  0  0
  3 26  2  0  0  0  0
  4 27  2  0  0  0  0
  4 28  2  0  0  0  0
  4 29  2  0  0  0  0
  5 30  2  0  0  0  0
  5 31  2  0  0  0  0
  5 32  2  0  0  0  0
  6 33  2  0  0  0  0
  6 34  2  0  0  0  0
  6 35  2  0  0  0  0
  7 36  2  0  0  0  0
  7 37  2  0  0  0  0
  7 38  2  0  0  0  0
  8 39  2  0  0  0  0
  8 40  2  0  0  0  0
  8 41  2  0  0  0  0
  9 42  2  0  0  0  0
  9 43  2  0  0  0  0
  9 44  2  0  0  0  0
 10 45  2  0  0  0  0
 10 46  2  0  0  0  0
 10 47  2  0  0  0  0
 11 48  2  0  0  0  0
 11 49  2  0  0  0  0
 11 50  2  0  0  0  0
 12 51  2  0  0  0  0
 12 52  2  0  0  0  0
 12 53  2  0  0  0  0
 13 14  1  0  0  0  0
 13 15  1  0  0  0  0
 13 16  1  0  0  0  0
 13 17  2  0  0  0  0
 54 57  1  0  0  0  0
 54 58  1  0  0  0  0
 54 59  1  0  0  0  0
 54 60  1  0  0  0  0
 55 61  1  0  0  0  0
 55 62  1  0  0  0  0
 55 63  1  0  0  0  0
 55 64  1  0  0  0  0
 56 65  1  0  0  0  0
 56 66  1  0  0  0  0
 56 67  1  0  0  0  0
 56 68  1  0  0  0  0
M  CHG  6  14  -1  15  -1  16  -1  54   1  55   1  56   1
M  END
> <PUBCHEM_COMPOUND_CID>
90479084

> <PUBCHEM_COMPOUND_CANONICALIZED>
1

> <PUBCHEM_CACTVS_COMPLEXITY>
98.7

> <PUBCHEM_CACTVS_HBOND_ACCEPTOR>
40

> <PUBCHEM_CACTVS_HBOND_DONOR>
3

> <PUBCHEM_CACTVS_ROTATABLE_BOND>
0

> <PUBCHEM_CACTVS_SUBSKEYS>
AAADccADPgIAAAAAAEAAAAAAAAAAAAAAAAAAAAAAAAAAAAAAAAAAAAAQACAAAAAAAAAAAAAAABAAQAAAAIAAAAAAAAAAAAAAAAAAAAAAAAAAAAAAAAAAAAAAAAAAAAAAAAAAAAAAAAAAAAAAAAAAAAAAAA==

> <PUBCHEM_IUPAC_OPENEYE_NAME>
triammonium;dodecakis(trioxomolybdenum);phosphate

> <PUBCHEM_IUPAC_CAS_NAME>
triammonium;dodecakis(trioxomolybdenum);phosphate

> <PUBCHEM_IUPAC_NAME_MARKUP>
triazanium;dodecakis(trioxomolybdenum);phosphate

> <PUBCHEM_IUPAC_NAME>
triazanium;dodecakis(trioxomolybdenum);phosphate

> <PUBCHEM_IUPAC_SYSTEMATIC_NAME>
triazanium;dodecakis(tris(oxidanylidene)molybdenum);phosphate

> <PUBCHEM_IUPAC_TRADITIONAL_NAME>
triammonium;dodecakis(triketomolybdenum);phosphate

> <PUBCHEM_IUPAC_INCHI>
InChI=1S/12Mo.3H3N.H3O4P.36O/c;;;;;;;;;;;;;;;1-5(2,3)4;;;;;;;;;;;;;;;;;;;;;;;;;;;;;;;;;;;;/h;;;;;;;;;;;;3*1H3;(H3,1,2,3,4);;;;;;;;;;;;;;;;;;;;;;;;;;;;;;;;;;;;

> <PUBCHEM_IUPAC_INCHIKEY>
RIAJLMJRHLGNMZ-UHFFFAOYSA-N

> <PUBCHEM_EXACT_MASS>
1874.742887

> <PUBCHEM_MOLECULAR_FORMULA>
H12Mo12N3O40P

> <PUBCHEM_MOLECULAR_WEIGHT>
1876.5

> <PUBCHEM_SMILES>
[NH4+].[NH4+].[NH4+].[O-]P(=O)([O-])[O-].O=[Mo](=O)=O.O=[Mo](=O)=O.O=[Mo](=O)=O.O=[Mo](=O)=O.O=[Mo](=O)=O.O=[Mo](=O)=O.O=[Mo](=O)=O.O=[Mo](=O)=O.O=[Mo](=O)=O.O=[Mo](=O)=O.O=[Mo](=O)=O.O=[Mo](=O)=O

> <PUBCHEM_CONNECTIVITY_SMILES>
[NH4+].[NH4+].[NH4+].[O-]P(=O)([O-])[O-].O=[Mo](=O)=O.O=[Mo](=O)=O.O=[Mo](=O)=O.O=[Mo](=O)=O.O=[Mo](=O)=O.O=[Mo](=O)=O.O=[Mo](=O)=O.O=[Mo](=O)=O.O=[Mo](=O)=O.O=[Mo](=O)=O.O=[Mo](=O)=O.O=[Mo](=O)=O

> <PUBCHEM_CACTVS_TPSA>
704

> <PUBCHEM_MONOISOTOPIC_WEIGHT>
1899.73831

> <PUBCHEM_TOTAL_CHARGE>
0

> <PUBCHEM_HEAVY_ATOM_COUNT>
56

> <PUBCHEM_ATOM_DEF_STEREO_COUNT>
0

> <PUBCHEM_ATOM_UDEF_STEREO_COUNT>
0

> <PUBCHEM_BOND_DEF_STEREO_COUNT>
0

> <PUBCHEM_BOND_UDEF_STEREO_COUNT>
0

> <PUBCHEM_ISOTOPIC_ATOM_COUNT>
0

> <PUBCHEM_COMPONENT_COUNT>
16

> <PUBCHEM_CACTVS_TAUTO_COUNT>
-1

> <PUBCHEM_COORDINATE_TYPE>
1
5
255

$$$$
